/*--------------------------------*- C++ -*----------------------------------*\
| =========                 |                                                 |
| \\      /  F ield         | OpenFOAM: The Open Source CFD Toolbox           |
|  \\    /   O peration     | Version:  v2312                                 |
|   \\  /    A nd           | Website:  www.openfoam.com                      |
|    \\/     M anipulation  |                                                 |
\*---------------------------------------------------------------------------*/
FoamFile
{
    version     2.0;
    format      ascii;
    class       dictionary;
    object      blockMeshDict;
}
// * * * * * * * * * * * * * * * * * * * * * * * * * * * * * * * * * * * * * //

scale   1;



/*
Refinement box:
minX -0.08;
maxX 0.095;
minY -0.075;
maxY 0.08;
minZ -0.52;
maxZ -0.15;
*/

minX -0.2;
maxX 0.215;
minY -0.195;
maxY 0.2;
minZ -0.64;
maxZ -0.03;







vertices
(

    ($minX $maxY $minZ) // 0
    ($maxX $maxY $minZ) // 1
    ($maxX $maxY $maxZ) // 2
    ($minX $maxY $maxZ) // 3

    ($minX $minY $minZ) // 4
    ($maxX $minY $minZ) // 5
    ($maxX $minY $maxZ) // 6
    ($minX $minY $maxZ) // 7



);

blocks
(
    hex (0 1 2 3 4 5 6 7) (16 24 15) simpleGrading (1 1 1)
);

edges
(
);

boundary
(
    frontAndBack
    {
        type patch;
        faces
        (
            (3 2 1 0)
            (7 4 5 6)
        );
    }
    inlet
    {
        type patch;
        faces
        (
            (3 7 6 2)
        );
    }
    outlet
    {
        type patch;
        faces
        (
            (4 0 1 5)
        );
    }
    lowerWall //rightWall
    {
        type wall;
        faces
        (
            (7 3 0 4)
        );
    }
    upperWall //leftWall
    {
        type patch;
        faces
        (
            (2 6 5 1)
        );
    }
);


// ************************************************************************* //
