/*--------------------------------*- C++ -*----------------------------------*\
| =========                 |                                                 |
| \\      /  F ield         | OpenFOAM: The Open Source CFD Toolbox           |
|  \\    /   O peration     | Version:  2312                                  |
|   \\  /    A nd           | Website:  www.openfoam.com                      |
|    \\/     M anipulation  |                                                 |
\*---------------------------------------------------------------------------*/
FoamFile
{
    version     2.0;
    format      ascii;
    arch        "LSB;label=32;scalar=64";
    class       volScalarField;
    location    "0";
    object      omega;
}
// * * * * * * * * * * * * * * * * * * * * * * * * * * * * * * * * * * * * * //

dimensions      [0 0 -1 0 0 0 0];

internalField   uniform 440.15;

boundaryField
{
    walls
    {
        type            omegaWallFunction;
        value           uniform 440.15;
    }
    AortaInlet
    {
        type            fixedValue;
        value           uniform 440.15;
    }
    REI
    {
        type            zeroGradient;
    }
    LEI
    {
        type            zeroGradient;
    }
    LII
    {
        type            zeroGradient;
    }
    RII
    {
        type            zeroGradient;
    }
}


// ************************************************************************* //
