/*--------------------------------*- C++ -*----------------------------------*\
| =========                 |                                                 |
| \\      /  F ield         | OpenFOAM: The Open Source CFD Toolbox           |
|  \\    /   O peration     | Version:  2312                                  |
|   \\  /    A nd           | Website:  www.openfoam.com                      |
|    \\/     M anipulation  |                                                 |
\*---------------------------------------------------------------------------*/
FoamFile
{
    version     2.0;
    format      ascii;
    arch        "LSB;label=32;scalar=64";
    class       volScalarField;
    location    "0";
    object      p;
}
// * * * * * * * * * * * * * * * * * * * * * * * * * * * * * * * * * * * * * //

dimensions      [0 2 -2 0 0 0 0];

internalField   uniform 0;

boundaryField
{
    walls
    {
        type            zeroGradient;
    }
    LI
    {
        type            threeElementWindkessel;
        Rp              1.2169e+08;
        Rd              6.5861e+08;
        C               3.6165e-09;
        Pd              0;
        value           uniform 0;
    }
    aortaInlet
    {
        type            zeroGradient;
    }
    RI
    {
        type            threeElementWindkessel;
        Rp              1.2169e+08;
        Rd              6.5861e+08;
        C               3.6165e-09;
        Pd              0;
        value           uniform 0;
    }
}


// ************************************************************************* //
